
     RDKit          2D

 23 25  0  0  0  0  0  0  0  0999 V2000
    2.7760   -1.5000    0.0000 C   0  0  0  0  0  0  0  0  0  0  0  0
    2.7760    0.0000    0.0000 C   0  0  0  0  0  0  0  0  0  0  0  0
    2.7760    1.5000    0.0000 C   0  0  0  0  0  0  0  0  0  0  0  0
    4.2760    0.0000    0.0000 C   0  0  0  0  0  0  0  0  0  0  0  0
    1.2760    0.0000    0.0000 C   0  0  0  0  0  0  0  0  0  0  0  0
    0.3943    1.2135    0.0000 C   0  0  0  0  0  0  0  0  0  0  0  0
   -1.0323    0.7500    0.0000 O   0  0  0  0  0  0  0  0  0  0  0  0
   -1.0323   -0.7500    0.0000 C   0  0  0  0  0  0  0  0  0  0  0  0
   -2.2458   -1.6317    0.0000 C   0  0  0  0  0  0  0  0  0  0  0  0
   -1.2421   -2.7464    0.0000 C   0  0  0  0  0  0  0  0  0  0  0  0
    0.2497   -2.5896    0.0000 N   0  0  0  0  0  0  0  0  0  0  0  0
    0.8598   -3.9599    0.0000 C   0  0  0  0  0  0  0  0  0  0  0  0
    2.3270   -4.2718    0.0000 C   0  0  0  0  0  0  0  0  0  0  0  0
    2.0151   -5.7390    0.0000 C   0  0  0  0  0  0  0  0  0  0  0  0
    2.6389   -2.8046    0.0000 C   0  0  0  0  0  0  0  0  0  0  0  0
    3.7942   -4.5837    0.0000 C   0  0  0  0  0  0  0  0  0  0  0  0
   -0.2549   -4.9636    0.0000 C   0  0  0  0  0  0  0  0  0  0  0  0
   -1.5540   -4.2136    0.0000 O   0  0  0  0  0  0  0  0  0  0  0  0
   -3.2495   -2.7464    0.0000 C   0  0  0  0  0  0  0  0  0  0  0  0
   -4.6198   -2.1363    0.0000 C   0  0  0  0  0  0  0  0  0  0  0  0
   -4.4630   -0.6445    0.0000 C   0  0  0  0  0  0  0  0  0  0  0  0
   -2.9958   -0.3326    0.0000 C   0  0  0  0  0  0  0  0  0  0  0  0
    0.3943   -1.2135    0.0000 N   0  0  0  0  0  0  0  0  0  0  0  0
  1  2  1  0
  2  3  1  0
  2  4  1  0
  5  2  1  6
  5  6  1  0
  6  7  1  0
  7  8  1  0
  8  9  1  0
  9 10  1  0
 10 11  2  0
 11 12  1  0
 12 13  1  1
 13 14  1  0
 13 15  1  0
 13 16  1  0
 12 17  1  0
 17 18  1  0
  9 19  1  0
 19 20  1  0
 20 21  1  0
 21 22  1  0
  8 23  2  0
 23  5  1  0
 22  9  1  0
 18 10  1  0
M  END
$$$$
